tests/simple_dss/master.dss
Clear 
Set DefaultBaseFrequency=60

new circuit.IEEE13Nodeckt 
~ basekv=115 pu=1.0001 phases=3 bus1=SourceBus  
~ Angle=30                                                         ! advance angle 30 deg so result agree with published angle
~ MVAsc3=20000 MVASC1=21000    ! stiffen the source to approximate inf source

!SWITCH DEFINITIONS 
New Line.VIRTUAL    Phases=3 Bus1=SourceBus   Bus2=SourceBus2  Switch=y  r1=1e-4 r0=1e-4 x1=0.000 x0=0.000 c1=0.000 c0=0.000 // schg: OnLoad ON substation 671692

!SWITCH DEFINITIONS 
New Line.671692    Phases=3 Bus1=671   Bus2=692  Switch=y  r1=1e-4 r0=1e-4 x1=0.000 x0=0.000 c1=0.000 c0=0.000 // schg: OffLoad ON VIRTUAL

New Line.VIRTUAL2   Phases=3 Bus1=SourceBus   Bus2=SourceBus2  Switch=y  r1=1e-4 r0=1e-4 x1=0.000 x0=0.000 c1=0.000 c0=0.000 // schg: OnLoad Off substation 671692 VIRTUAL

